Version 4.1
SHEET 1 1428 728
WIRE 688 -48 544 -48
WIRE 160 -16 -32 -16
WIRE 192 -16 160 -16
WIRE 272 -16 192 -16
WIRE 304 -16 272 -16
WIRE 544 -16 544 -48
WIRE 544 -16 304 -16
WIRE 576 -16 544 -16
WIRE 544 0 544 -16
WIRE -32 16 -32 -16
WIRE 192 32 192 -16
WIRE 192 32 160 32
WIRE 272 32 272 -16
WIRE 304 32 272 32
WIRE 576 48 576 -16
WIRE 576 48 544 48
WIRE 688 48 688 -48
WIRE 112 64 80 64
WIRE 368 64 352 64
WIRE 80 96 80 64
WIRE 160 96 160 80
WIRE 160 96 80 96
WIRE 368 96 368 64
WIRE 368 96 160 96
WIRE 304 112 304 80
WIRE 448 112 304 112
WIRE 496 112 496 80
WIRE 496 112 448 112
WIRE 544 112 544 96
WIRE 608 112 544 112
WIRE 160 144 160 96
WIRE 304 144 304 112
WIRE 688 144 688 128
WIRE 448 160 448 112
WIRE 544 192 544 112
WIRE 576 192 544 192
WIRE 368 224 352 224
WIRE 464 224 448 224
WIRE 544 224 544 192
WIRE 576 240 576 192
WIRE 784 240 576 240
WIRE 112 256 112 224
WIRE 144 256 112 256
WIRE 160 256 160 240
WIRE 240 256 160 256
WIRE 304 256 304 240
WIRE 304 256 240 256
WIRE 368 256 368 224
WIRE 368 256 320 256
WIRE 544 256 544 224
WIRE 560 256 544 256
WIRE -32 272 -32 96
WIRE -32 272 -80 272
WIRE 112 272 -32 272
WIRE 560 272 560 256
WIRE -32 288 -32 272
WIRE 0 288 -32 288
WIRE 240 288 240 256
WIRE 144 304 144 256
WIRE 160 304 144 304
WIRE 608 320 560 320
WIRE 48 336 0 336
WIRE 272 336 240 336
WIRE 784 352 784 320
WIRE 784 352 736 352
WIRE -80 368 -80 272
WIRE -48 368 -80 368
WIRE 112 368 112 272
WIRE 192 368 112 368
WIRE 512 368 512 352
WIRE 512 368 192 368
WIRE 608 368 608 320
WIRE 608 368 560 368
WIRE 784 368 784 352
WIRE 48 384 48 336
WIRE 48 384 0 384
WIRE 160 384 160 304
WIRE 176 384 160 384
WIRE 272 384 272 336
WIRE 272 384 240 384
WIRE 0 416 0 384
WIRE 240 416 240 384
WIRE 240 416 0 416
WIRE 560 416 560 368
WIRE 560 416 240 416
WIRE 240 432 240 416
WIRE 160 464 160 384
WIRE 160 464 112 464
WIRE 112 496 112 464
WIRE 112 496 32 496
WIRE 320 496 320 256
WIRE 784 496 784 448
WIRE 32 608 32 496
WIRE 32 608 -112 608
WIRE 784 624 784 576
WIRE -112 704 -112 608
WIRE 736 704 736 352
WIRE 736 704 -112 704
FLAG 240 432 0
FLAG 688 144 0
FLAG 608 176 0
FLAG 160 192 0
FLAG 304 192 0
FLAG 320 576 0
FLAG 784 624 0
SYMBOL lib\\sym\\cmosn 112 144 R0
SYMATTR InstName M1
SYMATTR Value2 l=0.5u w=0.855u
SYMBOL lib\\sym\\cmosn 352 144 M0
SYMATTR InstName M2
SYMATTR Value2 l=0.5u w=0.855u
SYMBOL lib\\sym\\cmosp 112 -16 R0
SYMATTR InstName M3
SYMATTR Value2 l=0.5u w=10.22u
SYMBOL lib\\sym\\cmosp 352 -16 M0
SYMATTR InstName M4
SYMATTR Value2 l=0.5u w=10.22u
SYMBOL lib\\sym\\cmosp 496 0 R0
SYMATTR InstName M5
SYMATTR Value2 l=0.5u w=25.55u
SYMBOL lib\\sym\\cmosn 512 272 R0
SYMATTR InstName M6
SYMATTR Value2 l=0.5u w=12.5u
SYMBOL lib\\sym\\cmosn 192 288 R0
SYMATTR InstName M7
SYMATTR Value2 l=0.5u w=20u
SYMBOL lib\\sym\\cmosn -48 288 R0
SYMATTR InstName M8
SYMATTR Value2 l=0.5u w=1u
SYMBOL lib\\sym\\current -32 16 R0
WINDOW 123 0 0 Left 0
WINDOW 39 0 0 Left 0
SYMATTR InstName I1
SYMATTR Value 4µ
SYMBOL voltage 688 32 R0
WINDOW 123 0 0 Left 0
WINDOW 39 0 0 Left 0
SYMATTR InstName V1
SYMATTR Value 1.8v
SYMBOL cap 432 160 R0
SYMATTR InstName C1
SYMATTR Value 4p
SYMBOL cap 592 112 R0
SYMATTR InstName C2
SYMATTR Value 10p
SYMBOL voltage 320 480 R0
WINDOW 3 24 152 Left 2
WINDOW 123 24 44 Left 2
WINDOW 39 0 0 Left 0
SYMATTR Value PULSE(0.9 1.1 1U 0.1n 0.1n 100u)
SYMATTR InstName V2
SYMBOL res 560 208 R90
WINDOW 0 0 56 VBottom 2
WINDOW 3 32 56 VTop 2
SYMATTR InstName R1
SYMATTR Value 2.5k
SYMBOL res 768 224 R0
SYMATTR InstName R2
SYMATTR Value 10Meg
SYMBOL res 768 352 R0
SYMATTR InstName R3
SYMATTR Value 10Meg
SYMBOL voltage 784 480 R0
WINDOW 123 0 0 Left 0
WINDOW 39 0 0 Left 0
SYMATTR InstName V4
SYMATTR Value 0.9
TEXT 1096 -40 Center 2 !.include tsmc018.lib
TEXT -112 712 Left 2 !.tran 10m
TEXT 1152 328 Left 2 ;.ac dec 100 0.1 100Meg
